<configuration>
    <input>
        <net-file value="traffic.net.xml"/>
		<route-files value="trafficDemo.rou.xml"/>
		<additional-files value="traffic.add.xml"/>
		<gui-settings-file value="view.settings.xml"/>
    </input>
	
    <time>
        <begin value="0"/>
        <end value="100000"/>
    </time>
</configuration>